<?xml version="1.0" encoding="UTF-8"?>
<edges xmlns:xsi="http://www.w3.org/2001/XMLSchema-instance" xsi:noNamespaceSchemaLocation="http://sumo.dlr.de/xsd/edges_file.xsd">
  <edge id="(0,1)_(1,1)" from="(0,1)" to="(1,1)" priority="0" numLanes="4" speed="19.444" />
  <edge id="(0,1)_(0,2)" from="(0,1)" to="(0,2)" priority="0" numLanes="4" speed="19.444" />
  <edge id="(0,2)_(1,2)" from="(0,2)" to="(1,2)" priority="0" numLanes="4" speed="19.444" />
  <edge id="(0,2)_(0,1)" from="(0,2)" to="(0,1)" priority="0" numLanes="4" speed="19.444" />
  <edge id="(1,0)_(2,0)" from="(1,0)" to="(2,0)" priority="0" numLanes="4" speed="19.444" />
  <edge id="(1,0)_(1,1)" from="(1,0)" to="(1,1)" priority="0" numLanes="4" speed="19.444" />
  <edge id="(1,1)_(2,1)" from="(1,1)" to="(2,1)" priority="0" numLanes="4" speed="19.444" />
  <edge id="(1,1)_(1,2)" from="(1,1)" to="(1,2)" priority="0" numLanes="4" speed="19.444" />
  <edge id="(1,1)_(0,1)" from="(1,1)" to="(0,1)" priority="0" numLanes="4" speed="19.444" />
  <edge id="(1,1)_(1,0)" from="(1,1)" to="(1,0)" priority="0" numLanes="4" speed="19.444" />
  <edge id="(1,2)_(2,2)" from="(1,2)" to="(2,2)" priority="0" numLanes="4" speed="19.444" />
  <edge id="(1,2)_(1,3)" from="(1,2)" to="(1,3)" priority="0" numLanes="4" speed="19.444" />
  <edge id="(1,2)_(0,2)" from="(1,2)" to="(0,2)" priority="0" numLanes="4" speed="19.444" />
  <edge id="(1,2)_(1,1)" from="(1,2)" to="(1,1)" priority="0" numLanes="4" speed="19.444" />
  <edge id="(1,3)_(2,3)" from="(1,3)" to="(2,3)" priority="0" numLanes="4" speed="19.444" />
  <edge id="(1,3)_(1,2)" from="(1,3)" to="(1,2)" priority="0" numLanes="4" speed="19.444" />
  <edge id="(2,0)_(2,1)" from="(2,0)" to="(2,1)" priority="0" numLanes="4" speed="19.444" />
  <edge id="(2,0)_(1,0)" from="(2,0)" to="(1,0)" priority="0" numLanes="4" speed="19.444" />
  <edge id="(2,1)_(3,1)" from="(2,1)" to="(3,1)" priority="0" numLanes="4" speed="19.444" />
  <edge id="(2,1)_(2,2)" from="(2,1)" to="(2,2)" priority="0" numLanes="4" speed="19.444" />
  <edge id="(2,1)_(1,1)" from="(2,1)" to="(1,1)" priority="0" numLanes="4" speed="19.444" />
  <edge id="(2,1)_(2,0)" from="(2,1)" to="(2,0)" priority="0" numLanes="4" speed="19.444" />
  <edge id="(2,2)_(3,2)" from="(2,2)" to="(3,2)" priority="0" numLanes="4" speed="19.444" />
  <edge id="(2,2)_(2,3)" from="(2,2)" to="(2,3)" priority="0" numLanes="4" speed="19.444" />
  <edge id="(2,2)_(1,2)" from="(2,2)" to="(1,2)" priority="0" numLanes="4" speed="19.444" />
  <edge id="(2,2)_(2,1)" from="(2,2)" to="(2,1)" priority="0" numLanes="4" speed="19.444" />
  <edge id="(2,3)_(1,3)" from="(2,3)" to="(1,3)" priority="0" numLanes="4" speed="19.444" />
  <edge id="(2,3)_(2,2)" from="(2,3)" to="(2,2)" priority="0" numLanes="4" speed="19.444" />
  <edge id="(3,1)_(3,2)" from="(3,1)" to="(3,2)" priority="0" numLanes="4" speed="19.444" />
  <edge id="(3,1)_(2,1)" from="(3,1)" to="(2,1)" priority="0" numLanes="4" speed="19.444" />
  <edge id="(3,2)_(2,2)" from="(3,2)" to="(2,2)" priority="0" numLanes="4" speed="19.444" />
  <edge id="(3,2)_(3,1)" from="(3,2)" to="(3,1)" priority="0" numLanes="4" speed="19.444" />
</edges>
