<?xml version="1.0" encoding="UTF-8"?>
<nodes xmlns:xsi="http://www.w3.org/2001/XMLSchema-instance" xsi:noNamespaceSchemaLocation="http://sumo.dlr.de/xsd/nodes_file.xsd">
  <node id="(0,1)" x="-750.0" y="-250.0"  type="priority"/>
  <node id="(0,2)" x="-750.0" y="250.0"  type="priority"/>
  <node id="(1,0)" x="-250.0" y="-750.0"  type="priority"/>
  <node id="(1,1)" x="-250.0" y="-250.0"  type="traffic_light"/>
  <node id="(1,2)" x="-250.0" y="250.0"  type="traffic_light"/>
  <node id="(1,3)" x="-250.0" y="750.0"  type="priority"/>
  <node id="(2,0)" x="250.0" y="-750.0"  type="priority"/>
  <node id="(2,1)" x="250.0" y="-250.0"  type="traffic_light"/>
  <node id="(2,2)" x="250.0" y="250.0"  type="traffic_light"/>
  <node id="(2,3)" x="250.0" y="750.0"  type="priority"/>
  <node id="(3,1)" x="750.0" y="-250.0"  type="priority"/>
  <node id="(3,2)" x="750.0" y="250.0"  type="priority"/>
</nodes>
